(PID.TID 0000.0001) ** Warning ** OFFLINE_READPARMS: ignores "data.off" file since
(PID.TID 0000.0001) ** Warning ** OFFLINE_READPARMS: useOffLine= F (set from "data.pkg")
